Example_1a/PythonCombinationFederate.log
Voltage value = 136.59336599999997 kV
Python Federate grantedtime = 1.0
Load value = (1626.2044095712586+855.3530722132504j) kW
 Federate m has been registered
1
complex
PF TIme is 0.0 and ACOPF time is 0.0
PYPOWER Version 5.1.4, 27-June-2018 -- AC Optimal Power Flow
Python Interior Point Solver - PIPS, Version 1.0, 07-Feb-2011
Converged!

Converged in 3.60 seconds
Objective Function Value = 31434.85 $/hr
================================================================================
|     System Summary                                                           |
================================================================================

How many?                How much?              P (MW)            Q (MVAr)
---------------------    -------------------  -------------  -----------------
Buses            118     Total Gen Capacity    9966.2       -7345.0 to 11777.0
Generators        54     On-line Capacity      9966.2       -7345.0 to 11777.0
Committed Gens    54     Generation (actual)   1360.1            -614.8
Loads             99     Load                  1348.3             833.3
  Fixed           99       Fixed               1348.3             833.3
  Dispatchable     0       Dispatchable           0.0 of 0.0        0.0
Shunts            14     Shunt (inj)             -0.0              97.7
Branches         186     Losses (I^2 * Z)        11.87             78.45
Transformers       9     Branch Charging (inj)     -             1428.9
Inter-ties         0     Total Inter-tie Flow     0.0               0.0
Areas              1

                          Minimum                      Maximum
                 -------------------------  --------------------------------
Voltage Magnitude   1.004 p.u. @ bus 81         1.060 p.u. @ bus 83  
Voltage Angle      23.85 deg   @ bus 41        32.81 deg   @ bus 10  
P Losses (I^2*R)             -                  0.57 MW    @ line 25-27
Q Losses (I^2*X)             -                  6.77 MVAr  @ line 8-9
Lambda P           25.80 $/MWh @ bus 89        27.25 $/MWh @ bus 112 
Lambda Q           -0.40 $/MWh @ bus 44         0.05 $/MWh @ bus 118 

================================================================================
|     Bus Data                                                                 |
================================================================================
 Bus      Voltage          Generation             Load          Lambda($/MVA-hr)
  #   Mag(pu) Ang(deg)   P (MW)   Q (MVAr)   P (MW)   Q (MVAr)     P        Q   
----- ------- --------  --------  --------  --------  --------  -------  -------
    1  1.035   25.501      0.00      7.92     11.11      6.88    26.806     -
    2  1.035   25.588       -         -        5.99      3.71    26.790   0.009
    3  1.035   25.736       -         -        9.43      5.84    26.741   0.015
    4  1.039   26.622      0.00     37.98     12.53      7.76    26.535     -
    5  1.037   26.783       -         -         -         -      26.510   0.024
    6  1.037   25.979      0.00     16.63     17.20     10.66    26.680     -
    7  1.036   25.877       -         -        7.14      4.42    26.706   0.006
    8  1.022   28.178      0.00   -153.60      8.44      5.23    26.521     -
    9  1.045   30.353       -         -         -         -      26.357  -0.074
   10  1.031   32.808    139.18   -118.39       -         -      26.186     -
   11  1.035   25.945       -         -       20.97     13.00    26.711   0.027
   12  1.037   25.824     28.58     12.05     11.36      7.04    26.724     -
   13  1.033   25.474       -         -       10.92      6.77    26.836   0.042
   14  1.037   25.528       -         -        4.84      3.00    26.795  -0.005
   15  1.039   25.236      0.00     -9.36     29.76     18.45    26.847  -0.001
   16  1.038   25.572       -         -        9.39      5.82    26.770  -0.012
   17  1.049   25.872       -         -        3.31      2.05    26.657  -0.085
   18  1.040   25.306      0.00     -2.64     20.23     12.54    26.816     -
   19  1.040   25.188      0.00     -6.96      9.80      6.07    26.852  -0.000
   20  1.042   25.399       -         -        5.39      3.34    26.850  -0.011
   21  1.044   25.787       -         -        3.38      2.10    26.801  -0.025
   22  1.048   26.404       -         -        3.21      1.99    26.710  -0.037
   23  1.053   27.701       -         -        2.42      1.50    26.511  -0.036
   24  1.049   27.591      0.00    -13.46      4.30      2.66    26.578     -
   25  1.057   29.941     68.03    -25.63       -         -      26.184     -
   26  1.017   30.535     97.81    -52.93       -         -      26.230     -
   27  1.044   26.159      0.00      6.90     23.93     14.83    26.801     -
   28  1.042   25.769       -         -        3.70      2.29    26.869   0.004
   29  1.040   25.525       -         -        7.19      4.46    26.913   0.011
   30  1.026   27.287       -         -         -         -      26.606  -0.087
   31  1.041   25.550      2.41      3.13     13.81      8.56    26.896     -
   32  1.043   25.994      0.00      0.68     20.39     12.64    26.830     -
   33  1.047   24.875       -         -        7.61      4.71    26.865  -0.103
   34  1.058   24.878      0.00     -8.00     22.16     13.73    26.775  -0.218
   35  1.055   24.792       -         -        9.94      6.16    26.802  -0.181
   36  1.054   24.792      0.00     -8.00     10.45      6.48    26.806  -0.177
   37  1.060   25.016       -         -         -         -      26.731  -0.230
   38  1.016   26.521       -         -         -         -      26.671  -0.142
   39  1.044   24.244       -         -        6.53      4.05    27.041  -0.073
   40  1.038   23.987      0.00     -4.37     21.20     13.14    27.164     -
   41  1.034   23.847       -         -       12.79      7.92    27.226   0.030
   42  1.038   24.266      0.00      9.97     31.75     19.68    27.134     -
   43  1.059   24.727       -         -        6.76      4.19    26.910  -0.311
   44  1.060   25.402       -         -        4.82      2.99    26.920  -0.396
   45  1.051   26.025       -         -       17.87     11.07    26.887  -0.238
   46  1.042   27.155      6.34    -28.73      6.10      3.78    26.679     -
   47  1.046   27.703       -         -       10.19      6.31    26.552   0.002
   48  1.052   27.431       -         -        4.84      3.00    26.564  -0.112
   49  1.047   27.785     66.18    -31.42     27.95     17.32    26.488     -
   50  1.043   27.146       -         -        5.87      3.64    26.662   0.006
   51  1.038   26.317       -         -        5.62      3.48    26.889   0.018
   52  1.036   26.028       -         -        6.76      4.19    26.972   0.027
   53  1.036   25.781       -         -        6.93      4.30    26.988   0.015
   54  1.038   26.042     16.57     11.37     38.09     23.61    26.903     -
   55  1.038   25.996      0.00      4.58     13.72      8.50    26.910     -
   56  1.038   26.023      0.00      6.85     25.16     15.60    26.910     -
   57  1.040   26.394       -         -        2.90      1.80    26.834  -0.009
   58  1.037   26.108       -         -        3.85      2.39    26.926   0.011
   59  1.043   27.058     50.88     14.97     95.73     59.33    26.565     -
   60  1.042   28.175       -         -       25.80     15.99    26.418   0.013
   61  1.044   28.420     50.99     30.24       -         -      26.374     -
   62  1.044   28.275      0.00     10.63     23.20     14.38    26.413     -
   63  1.014   28.024       -         -         -         -      26.478  -0.003
   64  1.020   28.533       -         -         -         -      26.387  -0.025
   65  1.010   29.534    122.18    -66.99       -         -      26.249  -0.004
   66  1.054   29.624    121.47    -67.00      9.43      5.84    26.198  -0.015
   67  1.047   28.761       -         -        8.99      5.57    26.349   0.007
   68  1.008   29.389       -         -         -         -      26.225     -
   69  1.055   30.000*   158.58    -94.29       -         -      26.142     -
   70  1.045   27.650      0.00     -1.27     24.79     15.36    26.690     -
   71  1.046   27.579       -         -         -         -      26.694  -0.007
   72  1.046   27.390      0.00     -2.90      4.05      2.51    26.684     -
   73  1.045   27.556      0.00     -1.47      1.31      0.81    26.699     -
   74  1.042   27.261      0.00     -1.44     20.37     12.63    26.854     -
   75  1.043   27.587       -         -       11.36      7.04    26.780   0.007
   76  1.039   27.000      0.00     17.51     21.84     13.54    26.947     -
   77  1.048   28.782      0.00    -18.30     21.08     13.06    26.452     -
   78  1.047   28.683       -         -       23.48     14.55    26.473   0.005
   79  1.050   28.748       -         -       14.65      9.08    26.439  -0.024
   80  1.052   29.584    148.64    -57.17     39.18     24.28    26.232     -
   81  1.004   29.477       -         -         -         -      26.224   0.012
   82  1.059   28.640       -         -       11.76      7.29    26.391  -0.232
   83  1.060   28.836       -         -        5.99      3.71    26.315  -0.289
   84  1.057   29.418       -         -        2.66      1.65    26.177  -0.138
   85  1.055   29.796      0.00     -8.00      7.71      4.78    26.072  -0.059
   86  1.051   29.453       -         -        7.26      4.50    26.171  -0.023
   87  1.048   29.610      1.23     -4.12       -         -      26.155     -
   88  1.053   30.519       -         -       18.03     11.17    25.978   0.011
   89  1.060   31.619    175.91    -15.44       -         -      25.796     -
   90  1.052   29.838      0.00     25.71     54.95     34.05    26.194     -
   91  1.053   29.931      0.00     -1.68      2.18      1.35    26.157     -
   92  1.055   30.214      0.00     -2.78     19.47     12.07    26.061  -0.001
   93  1.053   29.536       -         -        2.90      1.80    26.225  -0.018
   94  1.051   29.064       -         -        9.64      5.97    26.337  -0.031
   95  1.049   28.800       -         -       14.51      9.00    26.408  -0.028
   96  1.053   28.811       -         -       12.57      7.79    26.382  -0.087
   97  1.051   29.058       -         -        5.63      3.49    26.333  -0.041
   98  1.049   29.061       -         -       10.25      6.35    26.339   0.016
   99  1.050   28.809      0.00      4.71     14.16      8.77    26.385     -
  100  1.051   29.102     79.67    -16.48      8.06      4.99    26.323     -
  101  1.052   29.320       -         -        6.59      4.08    26.263   0.002
  102  1.054   29.887       -         -        1.21      0.75    26.132  -0.006
  103  1.047   28.093     13.17     -5.38      7.39      4.58    26.585     -
  104  1.043   27.203      0.00     -3.52     13.13      8.14    26.790     -
  105  1.044   26.867      0.00     -8.00     10.25      6.35    26.869  -0.034
  106  1.041   26.783       -         -       16.15     10.01    26.896  -0.003
  107  1.037   26.111      0.00     -3.41     15.07      9.34    27.082     -
  108  1.043   26.630       -         -        0.67      0.42    26.929  -0.030
  109  1.042   26.548       -         -        1.74      1.08    26.950  -0.024
  110  1.040   26.409      0.00     -7.61     11.68      7.24    26.980  -0.001
  111  1.043   26.900     12.32     -1.07       -         -      26.846     -
  112  1.035   25.662      0.00     10.43     21.84     13.54    27.253     -
  113  1.044   25.939      0.00    -21.04      2.07      1.29    26.687     -
  114  1.041   25.895       -         -        2.65      1.64    26.856   0.016
  115  1.041   25.892       -         -        8.26      5.12    26.858   0.018
  116  1.008   29.262      0.00     25.73     55.45     34.36    26.234     -
  117  1.032   25.358       -         -        6.74      4.18    26.836   0.039
  118  1.036   27.028       -         -       24.39     12.83    26.953   0.049
                        --------  --------  --------  --------
               Total:   1360.15   -614.84   1348.28    833.30

================================================================================
|     Branch Data                                                              |
================================================================================
Brnch   From   To    From Bus Injection   To Bus Injection     Loss (I^2 * Z)  
  #     Bus    Bus    P (MW)   Q (MVAr)   P (MW)   Q (MVAr)   P (MW)   Q (MVAr)
-----  -----  -----  --------  --------  --------  --------  --------  --------
   0      1      2     -1.50     -0.94      1.51     -1.78     0.001      0.00
   1      1      3     -9.60      1.97      9.62     -3.09     0.012      0.04
   2      4      5    -31.24     30.41     31.27    -30.49     0.031      0.14
   3      3      5    -17.77      0.26     17.84     -2.98     0.072      0.32
   4      5      6     26.83     -5.86    -26.75      4.70     0.082      0.37
   5      6      7      9.55      1.27     -9.55     -1.84     0.004      0.02
   6      8      9   -138.11   -124.95    138.65      7.52     0.542      6.77
   7      8      5     98.14      2.34    -98.14      0.05    -0.000      2.39
   8      9     10   -138.65     -7.52    139.18   -118.39     0.538      6.71
   9      4     11     18.71     -0.20    -18.65     -1.46     0.068      0.22
  10      5     11     22.20     -3.76    -22.11      2.21     0.094      0.32
  11     11     12      7.93    -12.22     -7.92     11.72     0.011      0.04
  12      2     12     -7.50     -1.93      7.51      0.28     0.010      0.03
  13      3     12     -1.28     -3.01      1.28     -1.34     0.001      0.00
  14      7     12      2.41     -2.58     -2.41      1.64     0.001      0.00
  15     11     13     11.85     -1.53    -11.82     -0.38     0.029      0.10
  16     12     14      7.09     -3.53     -7.07      1.61     0.011      0.04
  17     13     15      0.90     -6.39     -0.90     -0.32     0.007      0.02
  18     14     15      2.24     -4.61     -2.23     -0.79     0.005      0.02
  19     12     16      4.91     -4.18     -4.91      1.90     0.007      0.03
  20     15     17    -31.84    -16.04     31.99     11.68     0.147      0.49
  21     16     17     -4.48     -7.72      4.50      2.72     0.020      0.08
  22     17     18     24.69     12.97    -24.60    -14.02     0.089      0.37
  23     18     19      4.37     -1.16     -4.37     -0.07     0.002      0.01
  24     19     20     -3.60     -2.52      3.60     -0.70     0.003      0.01
  25     15     19      1.93     -1.66     -1.93      0.57     0.001      0.00
  26     20     21     -9.00     -2.65      9.01      0.36     0.014      0.07
  27     21     22    -12.39     -2.46     12.42     -0.10     0.030      0.14
  28     22     23    -15.64     -1.89     15.71     -2.21     0.076      0.35
  29     23     24      6.23      4.22     -6.22     -9.68     0.011      0.04
  30     23     25    -53.15      1.45     53.56     -9.00     0.403      2.07
  31     26     25     30.38      8.17    -30.38     -7.84    -0.000      0.34
  32     25     27     44.85     -8.79    -44.28     -7.73     0.573      2.94
  33     27     28      8.79     -0.59     -8.77     -1.69     0.014      0.06
  34     28     29      5.07     -0.60     -5.07     -1.96     0.006      0.02
  35     30     17     71.37     53.17    -71.37    -50.48    -0.000      2.69
  36      8     30     31.53    -36.22    -31.48    -17.15     0.045      0.52
  37     26     30     67.42    -61.11    -67.06    -29.69     0.366      3.94
  38     17     31      5.15      1.86     -5.13     -6.16     0.019      0.06
  39     29     31     -2.12     -2.50      2.12      1.60     0.001      0.00
  40     23     32     28.79     -4.96    -28.55     -7.06     0.238      0.86
  41     31     32     -8.39     -0.88      8.41     -1.78     0.019      0.06
  42     27     32      4.18     -0.95     -4.18     -1.13     0.004      0.01
  43     15     33      3.28     -9.00     -3.26      5.59     0.022      0.07
  44     19     34      0.09    -11.03     -0.05      4.21     0.040      0.13
  45     35     36      0.83      3.50     -0.83     -3.80     0.000      0.00
  46     35     37    -10.78     -9.66     10.79      8.28     0.019      0.09
  47     33     37     -4.35    -10.31      4.38      6.36     0.033      0.11
  48     34     36      9.64     10.09     -9.62    -10.68     0.016      0.05
  49     34     37    -33.28    -17.12     33.31     16.14     0.032      0.12
  50     38     37     80.68     78.55    -80.68    -74.52    -0.000      4.03
  51     37     39     17.26      9.03    -17.15    -11.63     0.117      0.39
  52     37     40     14.93      6.63    -14.77    -10.79     0.160      0.45
  53     30     38     27.17     -6.33    -27.13    -37.14     0.044      0.51
  54     39     40     10.62      7.59    -10.59     -9.17     0.031      0.10
  55     40     41      6.79      4.17     -6.78     -5.45     0.009      0.03
  56     40     42     -2.63     -1.72      2.64     -3.29     0.004      0.01
  57     41     42     -6.00     -2.48      6.02     -1.17     0.014      0.05
  58     43     44     -5.22     -2.71      5.24     -4.04     0.015      0.06
  59     34     43      1.54     -3.25     -1.54     -1.48     0.001      0.00
  60     44     45    -10.06     12.29     10.11    -14.55     0.057      0.23
  61     45     46    -12.69      9.13     12.80    -12.42     0.102      0.35
  62     46     47     -8.40     -2.41      8.43     -0.95     0.025      0.08
  63     46     48     -4.15     -6.84      4.17      1.73     0.020      0.06
  64     47     49     -3.10     -2.82      3.10      1.07     0.002      0.01
  65     42     49    -20.20     -2.62     20.48     -5.49     0.274      1.24
  66     42     49    -20.20     -2.62     20.48     -5.49     0.274      1.24
  67     45     49    -15.29      5.39     15.47     -9.78     0.183      0.50
  68     48     49     -9.00     11.87      9.04    -13.14     0.039      0.11
  69     49     50     16.14     -1.20    -16.08     -0.67     0.063      0.18
  70     49     51     20.38     -1.71    -20.20     -1.49     0.184      0.52
  71     51     52      9.45     -0.09     -9.43     -1.36     0.017      0.05
  72     52     53      2.67     -2.83     -2.67     -1.51     0.003      0.01
  73     53     54     -4.26     -2.78      4.27     -0.53     0.005      0.02
  74     49     54     11.58     -3.48    -11.49     -4.19     0.089      0.35
  75     49     54     11.38     -3.94    -11.28     -3.66     0.103      0.34
  76     54     55      1.25     -1.03     -1.25     -1.14     0.000      0.00
  77     54     56      4.15      0.65     -4.15     -1.43     0.000      0.00
  78     55     56     -3.11      0.56      3.11     -0.96     0.000      0.00
  79     56     57     -7.24     -1.27      7.26     -1.30     0.017      0.05
  80     50     57     10.21     -2.98    -10.16     -0.50     0.046      0.13
  81     56     58     -1.27     -0.22      1.27     -2.39     0.001      0.00
  82     51     58      5.13     -1.90     -5.12     -0.00     0.006      0.02
  83     54     59     -8.43     -3.48      8.46     -2.84     0.033      0.15
  84     56     59     -7.63     -2.56      7.67     -3.46     0.045      0.14
  85     56     59     -7.99     -2.31      8.04     -3.35     0.048      0.14
  86     55     59     -9.36     -3.33      9.40     -2.60     0.039      0.18
  87     59     60    -13.77      1.78     13.83     -5.59     0.060      0.27
  88     59     61    -16.52      1.19     16.61     -5.02     0.086      0.39
  89     60     61    -35.59     -6.67     35.62      5.25     0.032      0.16
  90     60     62     -4.04     -3.72      4.04      2.14     0.003      0.01
  91     61     62      6.76     -3.06     -6.76      2.01     0.004      0.02
  92     63     59     48.12     36.33    -48.12    -35.07    -0.000      1.26
  93     63     64    -48.12    -36.33     48.16     14.58     0.049      0.57
  94     64     61      8.00    -32.79     -8.00     33.07    -0.000      0.28
  95     38     65    -53.56    -41.41     53.82    -63.05     0.264      2.89
  96     64     65    -56.17     18.21     56.29    -56.01     0.119      1.34
  97     49     66    -38.54     -1.27     38.79     -0.22     0.244      1.24
  98     49     66    -38.54     -1.27     38.79     -0.22     0.244      1.24
  99     62     66    -12.34     -5.21     12.41     -0.84     0.069      0.31
 100     62     67     -8.14     -2.68      8.16     -0.64     0.016      0.07
 101     65     66     -4.84     75.65      4.84    -73.82    -0.000      1.82
 102     66     67     17.21      2.26    -17.15     -4.93     0.063      0.28
 103     65     68     16.91    -23.57    -16.91    -41.35     0.005      0.06
 104     47     69    -15.51     -2.54     15.70     -4.67     0.187      0.62
 105     49     69    -12.73     -3.04     12.88     -5.63     0.148      0.49
 106     68     69    -32.82     67.61     32.82    -65.81    -0.000      1.80
 107     69     70     35.78     -6.07    -35.44     -5.93     0.345      1.46
 108     24     70     -0.27     -4.69      0.27     -6.49     0.000      0.00
 109     70     71      3.17     -3.01     -3.16      2.05     0.001      0.01
 110     24     72      2.19     -1.75     -2.19     -3.59     0.003      0.01
 111     71     72      1.86     -3.04     -1.86     -1.81     0.002      0.01
 112     71     73      1.31      0.99     -1.31     -2.28     0.000      0.00
 113     70     74      5.89     -0.83     -5.87     -2.79     0.013      0.04
 114     70     75      1.33     -0.38     -1.33     -3.54     0.002      0.01
 115     69     75     37.76     -7.53    -37.24     -4.55     0.519      1.56
 116     74     75    -14.50      1.75     14.52     -2.79     0.024      0.08
 117     76     77    -22.50     -0.70     22.70     -2.61     0.209      0.70
 118     69     77     23.63     -4.59    -23.47     -6.38     0.155      0.51
 119     75     77    -11.14     -1.86     11.21     -3.35     0.069      0.23
 120     77     78     15.75      0.82    -15.74     -2.18     0.009      0.03
 121     78     79     -7.74    -12.38      7.75     11.71     0.010      0.05
 122     77     80    -31.19     -0.87     31.34     -3.90     0.151      0.43
 123     77     80    -14.72     -1.38     14.78     -0.92     0.058      0.21
 124     79     80    -22.40      1.26     22.47     -3.00     0.072      0.32
 125     68     81     -5.73    -18.34      5.74    -63.35     0.009      0.11
 126     81     80     -5.74     63.35      5.74    -62.05    -0.000      1.30
 127     77     82     -1.35    -17.59      1.40      8.66     0.047      0.13
 128     82     83    -10.70     -2.94     10.71     -1.28     0.012      0.04
 129     83     84     -5.94      4.20      5.98     -7.01     0.037      0.08
 130     83     85    -10.76      4.61     10.82     -8.29     0.061      0.21
 131     84     85     -8.64      5.36      8.67     -6.67     0.030      0.06
 132     85     86      6.04      0.71     -6.03     -3.73     0.013      0.05
 133     86     87     -1.23     -0.77      1.23     -4.12     0.001      0.01
 134     85     88    -12.74      3.56     12.78     -6.45     0.034      0.17
 135     85     89    -20.49     -2.09     20.58     -2.52     0.090      0.65
 136     88     89    -30.81     -4.72     30.93      3.18     0.121      0.62
 137     89     90     18.29     -3.50    -18.14     -1.83     0.154      0.56
 138     89     90     34.81     -5.77    -34.55     -4.97     0.257      1.08
 139     90     91     -2.26     -1.54      2.26     -0.83     0.001      0.00
 140     89     92     54.21     -3.52    -53.95     -1.29     0.259      1.32
 141     89     92     17.09     -3.32    -16.99     -0.90     0.103      0.41
 142     91     92     -4.44     -2.20      4.45     -1.41     0.007      0.02
 143     92     93     14.98     -2.89    -14.93      0.64     0.053      0.17
 144     92     94     13.63     -3.74    -13.55     -0.49     0.081      0.27
 145     93     94     12.03     -2.44    -12.00      0.46     0.029      0.10
 146     94     95     12.22      0.93    -12.20     -2.09     0.018      0.06
 147     80     96      7.83     -4.69     -7.81     -0.67     0.021      0.11
 148     82     96     -2.47      9.41      2.49    -15.39     0.023      0.08
 149     94     96      4.67     -4.39     -4.66      1.87     0.008      0.02
 150     80     97     10.57     -2.97    -10.55      0.26     0.019      0.10
 151     80     98      9.56     -0.54     -9.54     -2.53     0.020      0.09
 152     80     99      7.18     -3.37     -7.16     -2.56     0.021      0.10
 153     92    100      7.28     -2.69     -7.25     -2.40     0.031      0.14
 154     94    100     -0.97     -2.48      0.97     -4.19     0.000      0.00
 155     95     96     -2.31     -6.90      2.32      5.29     0.007      0.02
 156     96     97     -4.91      1.12      4.92     -3.75     0.005      0.02
 157     98    100     -0.71     -3.82      0.71     -1.42     0.001      0.00
 158     99    100     -7.00     -1.50      7.01     -0.85     0.008      0.04
 159    100    101     -3.29     -1.58      3.29     -2.04     0.003      0.01
 160     92    102     11.13     -1.93    -11.11      0.36     0.014      0.06
 161    101    102     -9.88     -2.05      9.90     -1.11     0.022      0.10
 162    100    103     36.24     -5.06    -36.05     -0.21     0.191      0.63
 163    100    104     17.92     -2.44    -17.79     -2.90     0.131      0.59
 164    103    104     10.57     -2.69    -10.52     -1.59     0.048      0.16
 165    103    105     13.58     -4.68    -13.49      0.51     0.093      0.28
 166    100    106     19.30     -3.54    -19.09     -2.47     0.204      0.77
 167    104    105     15.17     -7.17    -15.15      6.19     0.025      0.10
 168    105    106      4.00      3.52     -4.00     -5.06     0.004      0.02
 169    105    107      8.18     -1.25     -8.15     -3.75     0.033      0.12
 170    105    108      6.21     -1.53     -6.20     -0.45     0.009      0.03
 171    106    107      6.94     -2.48     -6.92     -2.54     0.024      0.08
 172    108    109      5.52      0.04     -5.52     -0.85     0.003      0.01
 173    103    110     17.68     -2.37    -17.57     -2.13     0.111      0.52
 174    109    110      3.78     -0.23     -3.77     -1.95     0.004      0.01
 175    110    111    -12.29     -1.00     12.32     -1.07     0.031      0.11
 176    110    112     21.95     -3.28    -21.84     -3.11     0.110      0.29
 177     17    113      1.72     19.20     -1.68    -19.93     0.032      0.11
 178     32    113      0.39     -3.24     -0.39     -2.40     0.000      0.00
 179     32    114      3.54      1.25     -3.54     -3.01     0.002      0.01
 180     27    115      7.38      1.35     -7.37     -3.45     0.009      0.04
 181    114    115      0.90      1.37     -0.90     -1.67     0.000      0.00
 182     68    116     55.46     -7.91    -55.45     -8.64     0.010      0.12
 183     12    117      6.76      0.42     -6.74     -4.18     0.016      0.07
 184     75    118     23.83      5.69    -23.75     -6.71     0.081      0.27
 185     76    118      0.65      4.67     -0.65     -6.12     0.004      0.01
                                                             --------  --------
                                                    Total:    11.866     78.45

================================================================================
|     Generation Constraints                                                   |
================================================================================
 Gen   Bus                Active Power Limits
  #     #    Pmin mu    Pmin       Pg       Pmax    Pmax mu
----  -----  -------  --------  --------  --------  -------
   0     1   13.194      0.00      0.00    100.00      -  
   1     4   13.465      0.00      0.00    100.00      -  
   2     6   13.320      0.00      0.00    100.00      -  
   3     8   13.479      0.00      0.00    100.00      -  
   6    15   13.153      0.00      0.00    100.00      -  
   7    18   13.184      0.00      0.00    100.00      -  
   8    19   13.148      0.00      0.00    100.00      -  
   9    24   13.422      0.00      0.00    100.00      -  
  12    27   13.199      0.00      0.00    100.00      -  
  14    32   13.170      0.00      0.00    100.00      -  
  15    34   13.225      0.00      0.00    100.00      -  
  16    36   13.194      0.00      0.00    100.00      -  
  17    40   12.836      0.00      0.00    100.00      -  
  18    42   12.866      0.00      0.00    100.00      -  
  22    55   13.090      0.00      0.00    100.00      -  
  23    56   13.090      0.00      0.00    100.00      -  
  26    62   13.587      0.00      0.00    100.00      -  
  30    70   13.310      0.00      0.00    100.00      -  
  31    72   13.316      0.00      0.00    100.00      -  
  32    73   13.301      0.00      0.00    100.00      -  
  33    74   13.146      0.00      0.00    100.00      -  
  34    76   13.053      0.00      0.00    100.00      -  
  35    77   13.548      0.00      0.00    100.00      -  
  37    85   13.928      0.00      0.00    100.00      -  
  40    90   13.806      0.00      0.00    100.00      -  
  41    91   13.843      0.00      0.00    100.00      -  
  42    92   13.939      0.00      0.00    100.00      -  
  43    99   13.615      0.00      0.00    100.00      -  
  46   104   13.210      0.00      0.00    100.00      -  
  47   105   13.131      0.00      0.00    100.00      -  
  48   107   12.918      0.00      0.00    100.00      -  
  49   110   13.020      0.00      0.00    100.00      -  
  51   112   12.747      0.00      0.00    100.00      -  
  52   113   13.313      0.00      0.00    100.00      -  
  53   116   13.766      0.00      0.00    100.00      -  

Gen  Bus              Reactive Power Limits
 #    #   Qmin mu    Qmin       Qg       Qmax    Qmax mu
---  ---  -------  --------  --------  --------  -------
 15   34   0.218     -8.00     -8.00     24.00      -  
 16   36   0.177     -8.00     -8.00     24.00      -  
 27   65   0.004    -67.00    -66.99    200.00      -  
 28   66   0.015    -67.00    -67.00    200.00      -  
 37   85   0.059     -8.00     -8.00     23.00      -  
 42   92   0.001     -3.00     -2.78      9.00      -  
 47  105   0.034     -8.00     -8.00     23.00      -  
PYPOWER Version 5.1.4, 27-June-2018 -- AC Power Flow (Newton)


Newton's method power flow converged in 1 iterations.

Converged in 0.03 seconds
================================================================================
|     System Summary                                                           |
================================================================================

How many?                How much?              P (MW)            Q (MVAr)
---------------------    -------------------  -------------  -----------------
Buses            118     Total Gen Capacity    9966.2       -7345.0 to 11777.0
Generators        54     On-line Capacity      9966.2       -7345.0 to 11777.0
Committed Gens    54     Generation (actual)   1360.1            -614.8
Loads             99     Load                  1348.3             833.3
  Fixed           99       Fixed               1348.3             833.3
  Dispatchable     0       Dispatchable           0.0 of 0.0        0.0
Shunts            14     Shunt (inj)             -0.0              97.7
Branches         186     Losses (I^2 * Z)        11.87             78.45
Transformers       9     Branch Charging (inj)     -             1428.9
Inter-ties         0     Total Inter-tie Flow     0.0               0.0
Areas              1

                          Minimum                      Maximum
                 -------------------------  --------------------------------
Voltage Magnitude   1.004 p.u. @ bus 81         1.060 p.u. @ bus 83  
Voltage Angle      23.85 deg   @ bus 41        32.81 deg   @ bus 10  
P Losses (I^2*R)             -                  0.57 MW    @ line 25-27
Q Losses (I^2*X)             -                  6.77 MVAr  @ line 8-9

================================================================================
|     Bus Data                                                                 |
================================================================================
 Bus      Voltage          Generation             Load        
  #   Mag(pu) Ang(deg)   P (MW)   Q (MVAr)   P (MW)   Q (MVAr)
----- ------- --------  --------  --------  --------  --------
    1  1.035   25.501      0.00      7.92     11.11      6.88 
    2  1.035   25.588       -         -        5.99      3.71 
    3  1.035   25.736       -         -        9.43      5.84 
    4  1.039   26.622      0.00     37.98     12.53      7.76 
    5  1.037   26.783       -         -         -         -   
    6  1.037   25.979      0.00     16.63     17.20     10.66 
    7  1.036   25.877       -         -        7.14      4.42 
    8  1.022   28.178      0.00   -153.60      8.44      5.23 
    9  1.045   30.353       -         -         -         -   
   10  1.031   32.808    139.18   -118.39       -         -   
   11  1.035   25.945       -         -       20.97     13.00 
   12  1.037   25.824     28.58     12.05     11.36      7.04 
   13  1.033   25.474       -         -       10.92      6.77 
   14  1.037   25.528       -         -        4.84      3.00 
   15  1.039   25.236      0.00     -9.36     29.76     18.45 
   16  1.038   25.572       -         -        9.39      5.82 
   17  1.049   25.872       -         -        3.31      2.05 
   18  1.040   25.306      0.00     -2.64     20.23     12.54 
   19  1.040   25.188      0.00     -6.96      9.80      6.07 
   20  1.042   25.399       -         -        5.39      3.34 
   21  1.044   25.787       -         -        3.38      2.10 
   22  1.048   26.404       -         -        3.21      1.99 
   23  1.053   27.701       -         -        2.42      1.50 
   24  1.049   27.591      0.00    -13.46      4.30      2.66 
   25  1.057   29.941     68.03    -25.63       -         -   
   26  1.017   30.535     97.81    -52.93       -         -   
   27  1.044   26.159      0.00      6.90     23.93     14.83 
   28  1.042   25.769       -         -        3.70      2.29 
   29  1.040   25.525       -         -        7.19      4.46 
   30  1.026   27.287       -         -         -         -   
   31  1.041   25.550      2.41      3.13     13.81      8.56 
   32  1.043   25.994      0.00      0.68     20.39     12.64 
   33  1.047   24.875       -         -        7.61      4.71 
   34  1.058   24.878      0.00     -8.00     22.16     13.73 
   35  1.055   24.792       -         -        9.94      6.16 
   36  1.054   24.792      0.00     -8.00     10.45      6.48 
   37  1.060   25.016       -         -         -         -   
   38  1.016   26.521       -         -         -         -   
   39  1.044   24.244       -         -        6.53      4.05 
   40  1.038   23.987      0.00     -4.37     21.20     13.14 
   41  1.034   23.847       -         -       12.79      7.92 
   42  1.038   24.266      0.00      9.97     31.75     19.68 
   43  1.059   24.727       -         -        6.76      4.19 
   44  1.060   25.402       -         -        4.82      2.99 
   45  1.051   26.025       -         -       17.87     11.07 
   46  1.042   27.155      6.34    -28.73      6.10      3.78 
   47  1.046   27.703       -         -       10.19      6.31 
   48  1.052   27.431       -         -        4.84      3.00 
   49  1.047   27.785     66.18    -31.42     27.95     17.32 
   50  1.043   27.146       -         -        5.87      3.64 
   51  1.038   26.317       -         -        5.62      3.48 
   52  1.036   26.028       -         -        6.76      4.19 
   53  1.036   25.781       -         -        6.93      4.30 
   54  1.038   26.042     16.57     11.37     38.09     23.61 
   55  1.038   25.996      0.00      4.58     13.72      8.50 
   56  1.038   26.023      0.00      6.85     25.16     15.60 
   57  1.040   26.394       -         -        2.90      1.80 
   58  1.037   26.108       -         -        3.85      2.39 
   59  1.043   27.058     50.88     14.97     95.73     59.33 
   60  1.042   28.175       -         -       25.80     15.99 
   61  1.044   28.420     50.99     30.24       -         -   
   62  1.044   28.275      0.00     10.63     23.20     14.38 
   63  1.014   28.024       -         -         -         -   
   64  1.020   28.533       -         -         -         -   
   65  1.010   29.534    122.18    -66.99       -         -   
   66  1.054   29.624    121.47    -67.00      9.43      5.84 
   67  1.047   28.761       -         -        8.99      5.57 
   68  1.008   29.389       -         -         -         -   
   69  1.055   30.000*   158.58    -94.29       -         -   
   70  1.045   27.650      0.00     -1.27     24.79     15.36 
   71  1.046   27.579       -         -         -         -   
   72  1.046   27.390      0.00     -2.90      4.05      2.51 
   73  1.045   27.556      0.00     -1.47      1.31      0.81 
   74  1.042   27.261      0.00     -1.44     20.37     12.63 
   75  1.043   27.587       -         -       11.36      7.04 
   76  1.039   27.000      0.00     17.51     21.84     13.54 
   77  1.048   28.782      0.00    -18.30     21.08     13.06 
   78  1.047   28.683       -         -       23.48     14.55 
   79  1.050   28.748       -         -       14.65      9.08 
   80  1.052   29.584    148.64    -57.17     39.18     24.28 
   81  1.004   29.477       -         -         -         -   
   82  1.059   28.640       -         -       11.76      7.29 
   83  1.060   28.836       -         -        5.99      3.71 
   84  1.057   29.418       -         -        2.66      1.65 
   85  1.055   29.796      0.00     -8.00      7.71      4.78 
   86  1.051   29.453       -         -        7.26      4.50 
   87  1.048   29.610      1.23     -4.12       -         -   
   88  1.053   30.519       -         -       18.03     11.17 
   89  1.060   31.619    175.91    -15.44       -         -   
   90  1.052   29.838      0.00     25.71     54.95     34.05 
   91  1.053   29.931      0.00     -1.68      2.18      1.35 
   92  1.055   30.214      0.00     -2.78     19.47     12.07 
   93  1.053   29.536       -         -        2.90      1.80 
   94  1.051   29.064       -         -        9.64      5.97 
   95  1.049   28.800       -         -       14.51      9.00 
   96  1.053   28.811       -         -       12.57      7.79 
   97  1.051   29.058       -         -        5.63      3.49 
   98  1.049   29.061       -         -       10.25      6.35 
   99  1.050   28.809      0.00      4.71     14.16      8.77 
  100  1.051   29.102     79.67    -16.48      8.06      4.99 
  101  1.052   29.320       -         -        6.59      4.08 
  102  1.054   29.887       -         -        1.21      0.75 
  103  1.047   28.093     13.17     -5.38      7.39      4.58 
  104  1.043   27.203      0.00     -3.52     13.13      8.14 
  105  1.044   26.867      0.00     -8.00     10.25      6.35 
  106  1.041   26.783       -         -       16.15     10.01 
  107  1.037   26.111      0.00     -3.41     15.07      9.34 
  108  1.043   26.630       -         -        0.67      0.42 
  109  1.042   26.548       -         -        1.74      1.08 
  110  1.040   26.409      0.00     -7.61     11.68      7.24 
  111  1.043   26.900     12.32     -1.07       -         -   
  112  1.035   25.662      0.00     10.43     21.84     13.54 
  113  1.044   25.939      0.00    -21.04      2.07      1.29 
  114  1.041   25.895       -         -        2.65      1.64 
  115  1.041   25.892       -         -        8.26      5.12 
  116  1.008   29.262      0.00     25.73     55.45     34.36 
  117  1.032   25.358       -         -        6.74      4.18 
  118  1.036   27.028       -         -       24.39     12.83 
                        --------  --------  --------  --------
               Total:   1360.15   -614.84   1348.28    833.30

================================================================================
|     Branch Data                                                              |
================================================================================
Brnch   From   To    From Bus Injection   To Bus Injection     Loss (I^2 * Z)  
  #     Bus    Bus    P (MW)   Q (MVAr)   P (MW)   Q (MVAr)   P (MW)   Q (MVAr)
-----  -----  -----  --------  --------  --------  --------  --------  --------
   0      1      2     -1.50     -0.94      1.51     -1.78     0.001      0.00
   1      1      3     -9.60      1.97      9.62     -3.09     0.012      0.04
   2      4      5    -31.24     30.41     31.27    -30.49     0.031      0.14
   3      3      5    -17.77      0.26     17.84     -2.98     0.072      0.32
   4      5      6     26.83     -5.86    -26.75      4.70     0.082      0.37
   5      6      7      9.55      1.27     -9.55     -1.84     0.004      0.02
   6      8      9   -138.11   -124.95    138.65      7.52     0.542      6.77
   7      8      5     98.14      2.34    -98.14      0.05    -0.000      2.39
   8      9     10   -138.65     -7.52    139.18   -118.39     0.538      6.71
   9      4     11     18.71     -0.20    -18.65     -1.46     0.068      0.22
  10      5     11     22.20     -3.76    -22.11      2.21     0.094      0.32
  11     11     12      7.93    -12.22     -7.92     11.72     0.011      0.04
  12      2     12     -7.50     -1.93      7.51      0.28     0.010      0.03
  13      3     12     -1.28     -3.01      1.28     -1.34     0.001      0.00
  14      7     12      2.41     -2.58     -2.41      1.64     0.001      0.00
  15     11     13     11.85     -1.53    -11.82     -0.38     0.029      0.10
  16     12     14      7.09     -3.53     -7.07      1.61     0.011      0.04
  17     13     15      0.90     -6.39     -0.90     -0.32     0.007      0.02
  18     14     15      2.24     -4.61     -2.23     -0.79     0.005      0.02
  19     12     16      4.91     -4.18     -4.91      1.90     0.007      0.03
  20     15     17    -31.84    -16.04     31.99     11.68     0.147      0.49
  21     16     17     -4.48     -7.72      4.50      2.72     0.020      0.08
  22     17     18     24.69     12.97    -24.60    -14.02     0.089      0.37
  23     18     19      4.37     -1.16     -4.37     -0.07     0.002      0.01
  24     19     20     -3.60     -2.52      3.60     -0.70     0.003      0.01
  25     15     19      1.93     -1.66     -1.93      0.57     0.001      0.00
  26     20     21     -9.00     -2.65      9.01      0.36     0.014      0.07
  27     21     22    -12.39     -2.46     12.42     -0.10     0.030      0.14
  28     22     23    -15.64     -1.89     15.71     -2.21     0.076      0.35
  29     23     24      6.23      4.22     -6.22     -9.68     0.011      0.04
  30     23     25    -53.15      1.45     53.56     -9.00     0.403      2.07
  31     26     25     30.38      8.17    -30.38     -7.84    -0.000      0.34
  32     25     27     44.85     -8.79    -44.28     -7.73     0.573      2.94
  33     27     28      8.79     -0.59     -8.77     -1.69     0.014      0.06
  34     28     29      5.07     -0.60     -5.07     -1.96     0.006      0.02
  35     30     17     71.37     53.17    -71.37    -50.48    -0.000      2.69
  36      8     30     31.53    -36.22    -31.48    -17.15     0.045      0.52
  37     26     30     67.42    -61.11    -67.06    -29.69     0.366      3.94
  38     17     31      5.15      1.86     -5.13     -6.16     0.019      0.06
  39     29     31     -2.12     -2.50      2.12      1.60     0.001      0.00
  40     23     32     28.79     -4.96    -28.55     -7.06     0.238      0.86
  41     31     32     -8.39     -0.88      8.41     -1.78     0.019      0.06
  42     27     32      4.18     -0.95     -4.18     -1.13     0.004      0.01
  43     15     33      3.28     -9.00     -3.26      5.59     0.022      0.07
  44     19     34      0.09    -11.03     -0.05      4.21     0.040      0.13
  45     35     36      0.83      3.50     -0.83     -3.80     0.000      0.00
  46     35     37    -10.78     -9.66     10.79      8.28     0.019      0.09
  47     33     37     -4.35    -10.31      4.38      6.36     0.033      0.11
  48     34     36      9.64     10.09     -9.62    -10.68     0.016      0.05
  49     34     37    -33.28    -17.12     33.31     16.14     0.032      0.12
  50     38     37     80.68     78.55    -80.68    -74.52    -0.000      4.03
  51     37     39     17.26      9.03    -17.15    -11.63     0.117      0.39
  52     37     40     14.93      6.63    -14.77    -10.79     0.160      0.45
  53     30     38     27.17     -6.33    -27.13    -37.14     0.044      0.51
  54     39     40     10.62      7.59    -10.59     -9.17     0.031      0.10
  55     40     41      6.79      4.17     -6.78     -5.45     0.009      0.03
  56     40     42     -2.63     -1.72      2.64     -3.29     0.004      0.01
  57     41     42     -6.00     -2.48      6.02     -1.17     0.014      0.05
  58     43     44     -5.22     -2.71      5.24     -4.04     0.015      0.06
  59     34     43      1.54     -3.25     -1.54     -1.48     0.001      0.00
  60     44     45    -10.06     12.29     10.11    -14.55     0.057      0.23
  61     45     46    -12.69      9.13     12.80    -12.42     0.102      0.35
  62     46     47     -8.40     -2.41      8.43     -0.95     0.025      0.08
  63     46     48     -4.15     -6.84      4.17      1.73     0.020      0.06
  64     47     49     -3.10     -2.82      3.10      1.07     0.002      0.01
  65     42     49    -20.20     -2.62     20.48     -5.49     0.274      1.24
  66     42     49    -20.20     -2.62     20.48     -5.49     0.274      1.24
  67     45     49    -15.29      5.39     15.47     -9.78     0.183      0.50
  68     48     49     -9.00     11.87      9.04    -13.14     0.039      0.11
  69     49     50     16.14     -1.20    -16.08     -0.67     0.063      0.18
  70     49     51     20.38     -1.71    -20.20     -1.49     0.184      0.52
  71     51     52      9.45     -0.09     -9.43     -1.36     0.017      0.05
  72     52     53      2.67     -2.83     -2.67     -1.51     0.003      0.01
  73     53     54     -4.26     -2.78      4.27     -0.53     0.005      0.02
  74     49     54     11.58     -3.48    -11.49     -4.19     0.089      0.35
  75     49     54     11.38     -3.94    -11.28     -3.66     0.103      0.34
  76     54     55      1.25     -1.03     -1.25     -1.14     0.000      0.00
  77     54     56      4.15      0.65     -4.15     -1.43     0.000      0.00
  78     55     56     -3.11      0.56      3.11     -0.96     0.000      0.00
  79     56     57     -7.24     -1.27      7.26     -1.30     0.017      0.05
  80     50     57     10.21     -2.98    -10.16     -0.50     0.046      0.13
  81     56     58     -1.27     -0.22      1.27     -2.39     0.001      0.00
  82     51     58      5.13     -1.90     -5.12     -0.00     0.006      0.02
  83     54     59     -8.43     -3.48      8.46     -2.84     0.033      0.15
  84     56     59     -7.63     -2.56      7.67     -3.46     0.045      0.14
  85     56     59     -7.99     -2.31      8.04     -3.35     0.048      0.14
  86     55     59     -9.36     -3.33      9.40     -2.60     0.039      0.18
  87     59     60    -13.77      1.78     13.83     -5.59     0.060      0.27
  88     59     61    -16.52      1.19     16.61     -5.02     0.086      0.39
  89     60     61    -35.59     -6.67     35.62      5.25     0.032      0.16
  90     60     62     -4.04     -3.72      4.04      2.14     0.003      0.01
  91     61     62      6.76     -3.06     -6.76      2.01     0.004      0.02
  92     63     59     48.12     36.33    -48.12    -35.07    -0.000      1.26
  93     63     64    -48.12    -36.33     48.16     14.58     0.049      0.57
  94     64     61      8.00    -32.79     -8.00     33.07    -0.000      0.28
  95     38     65    -53.56    -41.41     53.82    -63.05     0.264      2.89
  96     64     65    -56.17     18.21     56.29    -56.01     0.119      1.34
  97     49     66    -38.54     -1.27     38.79     -0.22     0.244      1.24
  98     49     66    -38.54     -1.27     38.79     -0.22     0.244      1.24
  99     62     66    -12.34     -5.21     12.41     -0.84     0.069      0.31
 100     62     67     -8.14     -2.68      8.16     -0.64     0.016      0.07
 101     65     66     -4.84     75.65      4.84    -73.82    -0.000      1.82
 102     66     67     17.21      2.26    -17.15     -4.93     0.063      0.28
 103     65     68     16.91    -23.57    -16.91    -41.35     0.005      0.06
 104     47     69    -15.51     -2.54     15.70     -4.67     0.187      0.62
 105     49     69    -12.73     -3.04     12.88     -5.63     0.148      0.49
 106     68     69    -32.82     67.61     32.82    -65.81    -0.000      1.80
 107     69     70     35.78     -6.07    -35.44     -5.93     0.345      1.46
 108     24     70     -0.27     -4.69      0.27     -6.49     0.000      0.00
 109     70     71      3.17     -3.01     -3.16      2.05     0.001      0.01
 110     24     72      2.19     -1.75     -2.19     -3.59     0.003      0.01
 111     71     72      1.86     -3.04     -1.86     -1.81     0.002      0.01Voltage value = 143.01121859660634 kV
Python Federate grantedtime = 300.0
Load value = (1659.7433793601615+868.8202536827642j) kW

 112     71     73      1.31      0.99     -1.31     -2.28     0.000      0.00
 113     70     74      5.89     -0.83     -5.87     -2.79     0.013      0.04
 114     70     75      1.33     -0.38     -1.33     -3.54     0.002      0.01
 115     69     75     37.76     -7.53    -37.24     -4.55     0.519      1.56
 116     74     75    -14.50      1.75     14.52     -2.79     0.024      0.08
 117     76     77    -22.50     -0.70     22.70     -2.61     0.209      0.70
 118     69     77     23.63     -4.59    -23.47     -6.38     0.155      0.51
 119     75     77    -11.14     -1.86     11.21     -3.35     0.069      0.23
 120     77     78     15.75      0.82    -15.74     -2.18     0.009      0.03
 121     78     79     -7.74    -12.38      7.75     11.71     0.010      0.05
 122     77     80    -31.19     -0.87     31.34     -3.90     0.151      0.43
 123     77     80    -14.72     -1.38     14.78     -0.92     0.058      0.21
 124     79     80    -22.40      1.26     22.47     -3.00     0.072      0.32
 125     68     81     -5.73    -18.34      5.74    -63.35     0.009      0.11
 126     81     80     -5.74     63.35      5.74    -62.05    -0.000      1.30
 127     77     82     -1.35    -17.59      1.40      8.66     0.047      0.13
 128     82     83    -10.70     -2.94     10.71     -1.28     0.012      0.04
 129     83     84     -5.94      4.20      5.98     -7.01     0.037      0.08
 130     83     85    -10.76      4.61     10.82     -8.29     0.061      0.21
 131     84     85     -8.64      5.36      8.67     -6.67     0.030      0.06
 132     85     86      6.04      0.71     -6.03     -3.73     0.013      0.05
 133     86     87     -1.23     -0.77      1.23     -4.12     0.001      0.01
 134     85     88    -12.74      3.56     12.78     -6.45     0.034      0.17
 135     85     89    -20.49     -2.09     20.58     -2.52     0.090      0.65
 136     88     89    -30.81     -4.72     30.93      3.18     0.121      0.62
 137     89     90     18.29     -3.50    -18.14     -1.83     0.154      0.56
 138     89     90     34.81     -5.77    -34.55     -4.97     0.257      1.08
 139     90     91     -2.26     -1.54      2.26     -0.83     0.001      0.00
 140     89     92     54.21     -3.52    -53.95     -1.29     0.259      1.32
 141     89     92     17.09     -3.32    -16.99     -0.90     0.103      0.41
 142     91     92     -4.44     -2.20      4.45     -1.41     0.007      0.02
 143     92     93     14.98     -2.89    -14.93      0.64     0.053      0.17
 144     92     94     13.63     -3.74    -13.55     -0.49     0.081      0.27
 145     93     94     12.03     -2.44    -12.00      0.46     0.029      0.10
 146     94     95     12.22      0.93    -12.20     -2.09     0.018      0.06
 147     80     96      7.83     -4.69     -7.81     -0.67     0.021      0.11
 148     82     96     -2.47      9.41      2.49    -15.39     0.023      0.08
 149     94     96      4.67     -4.39     -4.66      1.87     0.008      0.02
 150     80     97     10.57     -2.97    -10.55      0.26     0.019      0.10
 151     80     98      9.56     -0.54     -9.54     -2.53     0.020      0.09
 152     80     99      7.18     -3.37     -7.16     -2.56     0.021      0.10
 153     92    100      7.28     -2.69     -7.25     -2.40     0.031      0.14
 154     94    100     -0.97     -2.48      0.97     -4.19     0.000      0.00
 155     95     96     -2.31     -6.90      2.32      5.29     0.007      0.02
 156     96     97     -4.91      1.12      4.92     -3.75     0.005      0.02
 157     98    100     -0.71     -3.82      0.71     -1.42     0.001      0.00
 158     99    100     -7.00     -1.50      7.01     -0.85     0.008      0.04
 159    100    101     -3.29     -1.58      3.29     -2.04     0.003      0.01
 160     92    102     11.13     -1.93    -11.11      0.36     0.014      0.06
 161    101    102     -9.88     -2.05      9.90     -1.11     0.022      0.10
 162    100    103     36.24     -5.06    -36.05     -0.21     0.191      0.63
 163    100    104     17.92     -2.44    -17.79     -2.90     0.131      0.59
 164    103    104     10.57     -2.69    -10.52     -1.59     0.048      0.16
 165    103    105     13.58     -4.68    -13.49      0.51     0.093      0.28
 166    100    106     19.30     -3.54    -19.09     -2.47     0.204      0.77
 167    104    105     15.17     -7.17    -15.15      6.19     0.025      0.10
 168    105    106      4.00      3.52     -4.00     -5.06     0.004      0.02
 169    105    107      8.18     -1.25     -8.15     -3.75     0.033      0.12
 170    105    108      6.21     -1.53     -6.20     -0.45     0.009      0.03
 171    106    107      6.94     -2.48     -6.92     -2.54     0.024      0.08
 172    108    109      5.52      0.04     -5.52     -0.85     0.003      0.01
 173    103    110     17.68     -2.37    -17.57     -2.13     0.111      0.52
 174    109    110      3.78     -0.23     -3.77     -1.95     0.004      0.01
 175    110    111    -12.29     -1.00     12.32     -1.07     0.031      0.11
 176    110    112     21.95     -3.28    -21.84     -3.11     0.110      0.29
 177     17    113      1.72     19.20     -1.68    -19.93     0.032      0.11
 178     32    113      0.39     -3.24     -0.39     -2.40     0.000      0.00
 179     32    114      3.54      1.25     -3.54     -3.01     0.002      0.01
 180     27    115      7.38      1.35     -7.37     -3.45     0.009      0.04
 181    114    115      0.90      1.37     -0.90     -1.67     0.000      0.00
 182     68    116     55.46     -7.91    -55.45     -8.64     0.010      0.12
 183     12    117      6.76      0.42     -6.74     -4.18     0.016      0.07
 184     75    118     23.83      5.69    -23.75     -6.71     0.081      0.27
 185     76    118      0.65      4.67     -0.65     -6.12     0.004      0.01
                                                             --------  --------
                                                    Total:    11.866     78.45
PF TIme is 300.0 and ACOPF time is 900.0
PYPOWER Version 5.1.4, 27-June-2018 -- AC Power Flow (Newton)


Newton's method power flow converged in 2 iterations.

Converged in 0.05 seconds
================================================================================
|     System Summary                                                           |
================================================================================

How many?                How much?              P (MW)            Q (MVAr)
---------------------    -------------------  -------------  -----------------
Buses            118     Total Gen Capacity    9966.2       -7345.0 to 11777.0
Generators        54     On-line Capacity      9966.2       -7345.0 to 11777.0
Committed Gens    54     Generation (actual)   1345.1            -625.7
Loads             99     Load                  1333.5             824.1
  Fixed           99       Fixed               1333.5             824.1
  Dispatchable     0       Dispatchable           0.0 of 0.0        0.0
Shunts            14     Shunt (inj)             -0.0              97.7
Branches         186     Losses (I^2 * Z)        11.58             76.89
Transformers       9     Branch Charging (inj)     -             1428.9
Inter-ties         0     Total Inter-tie Flow     0.0               0.0
Areas              1

                          Minimum                      Maximum
                 -------------------------  --------------------------------
Voltage Magnitude   1.004 p.u. @ bus 81         1.060 p.u. @ bus 83  
Voltage Angle      24.18 deg   @ bus 41        33.16 deg   @ bus 10  
P Losses (I^2*R)             -                  0.56 MW    @ line 25-27
Q Losses (I^2*X)             -                  6.77 MVAr  @ line 8-9

================================================================================
|     Bus Data                                                                 |
================================================================================
 Bus      Voltage          Generation             Load        
  #   Mag(pu) Ang(deg)   P (MW)   Q (MVAr)   P (MW)   Q (MVAr)
----- ------- --------  --------  --------  --------  --------
    1  1.035   25.872      0.00      7.80     10.89      6.75 
    2  1.035   25.959       -         -        5.88      3.64 
    3  1.035   26.102       -         -        9.64      5.98 
    4  1.039   26.986      0.00     37.91     12.45      7.72 
    5  1.037   27.146       -         -         -         -   
    6  1.037   26.347      0.00     16.53     17.07     10.58 
    7  1.036   26.245       -         -        7.14      4.42 
    8  1.022   28.532      0.00   -153.56      8.57      5.31 
    9  1.045   30.707       -         -         -         -   
   10  1.031   33.162    139.18   -118.39       -         -   
   11  1.035   26.313       -         -       20.58     12.75 
   12  1.037   26.192     28.58     11.75     11.62      7.20 
   13  1.033   25.842       -         -       10.85      6.73 
   14  1.037   25.899       -         -        4.59      2.84 
   15  1.039   25.595      0.00     -9.64     29.54     18.30 
   16  1.038   25.936       -         -        9.39      5.82 
   17  1.049   26.229       -         -        3.37      2.09 
   18  1.040   25.668      0.00     -2.88     19.90     12.33 
   19  1.040   25.546      0.00     -7.19      9.61      5.96 
   20  1.042   25.750       -         -        5.29      3.28 
   21  1.044   26.129       -         -        3.46      2.15 
   22  1.048   26.740       -         -        3.19      1.98 
   23  1.053   28.025       -         -        2.29      1.42 
   24  1.049   27.872      0.00    -13.31      4.27      2.64 
   25  1.057   30.284     68.03    -25.69       -         -   
   26  1.017   30.877     97.81    -52.94       -         -   
   27  1.044   26.541      0.00      6.49     23.55     14.59 
   28  1.042   26.153       -         -        3.63      2.25 
   29  1.040   25.907       -         -        7.06      4.37 
   30  1.026   27.628       -         -         -         -   
   31  1.041   25.931      2.41      2.93     13.73      8.51 
   32  1.043   26.375      0.00     -0.33     19.34     11.99 
   33  1.047   25.214       -         -        7.55      4.68 
   34  1.058   25.192      0.00     -7.91     22.17     13.74 
...